Sample text to save. 
New line.
append new line.